*Heading
** Job name: newTubeLong Model name: Model-1-Copy-freeBlow1
** Generated by: Abaqus/CAE 6.14-1
*Preprint, echo=NO, model=NO, history=NO, contact=NO
**
** PARTS
**
*Part, name=Grip
*Node
      1,           0.,           0.,         -65.
      2,           0.,           0.,   -59.301899
      3,           0.,           0.,  -53.6037941
      4,   10.1682405,           0.,  -64.1997452
      5,   9.27686024,           0.,  -58.5717926
      6,   8.38548088,           0.,  -52.9438438
      7,   20.0861053,           0.,  -61.8186722
      8,   18.3252945,           0.,   -56.399456
      9,   16.5644836,           0.,  -50.9802399
     10,   29.5093822,           0.,  -57.9154243
     11,   26.9224987,           0.,  -52.8383789
     12,   24.3356133,           0.,  -47.7613297
     13,   38.2060432,           0.,  -52.5861053
     14,    34.856781,           0.,  -47.9762421
     15,   31.5075207,           0.,  -43.3663826
     16,   45.9619408,           0.,  -45.9619408
     17,   41.9327736,           0.,  -41.9327736
     18,   37.9036064,           0.,  -37.9036064
     19,   52.5861053,           0.,  -38.2060432
     20,   47.9762421,           0.,   -34.856781
** ... 203 like lines cut
*Element, type=S4R
1,  1,  2,  5,  4
 2,  2,  3,  6,  5
 3,  4,  5,  8,  7
 4,  5,  6,  9,  8
 5,  7,  8, 11, 10
 6,  8,  9, 12, 11
 7, 10, 11, 14, 13
 8, 11, 12, 15, 14
 9, 13, 14, 17, 16
10, 14, 15, 18, 17
11, 16, 17, 20, 19
12, 17, 18, 21, 20
13, 19, 20, 23, 22
14, 20, 21, 24, 23
15, 22, 23, 26, 25
16, 23, 24, 27, 26
17, 25, 26, 29, 28
18, 26, 27, 30, 29
19, 28, 29, 32, 31
20, 29, 30, 33, 32
** ... 175 like lines cut
*Nset, nset=Set-6, generate
   1,  223,    1
*Elset, elset=Set-6, generate
   1,  195,    1
** Section: Grip
*Shell Section, elset=Set-6, material=PLLA
0.1, 5
*Transverse Shear
25000., 25000., 0. 
*End Part
**  
*Part, name=Tube
*Node
      1,           0.,  0.200000003,         -60.
      2,   3.62270975,  0.200000003,  -59.8905334
      3,   7.23220062,  0.200000003,  -59.5625343
      4,   10.8153019,  0.200000003,  -59.0171928
      5,   14.3589401,  0.200000003,  -58.2565079
      6,   17.8501835,  0.200000003,  -57.2832527
      7,   21.2762928,  0.200000003,   -56.100975
      8,   24.6247692,  0.200000003,  -54.7139893
      9,   27.8833904,  0.200000003,  -53.1273613
     10,   31.0402679,  0.200000003,  -51.3468781
     11,   34.0838852,  0.200000003,  -49.3790321
     12,   37.0031319,  0.200000003,  -47.2310104
     13,   39.7873611,  0.200000003,  -44.9106445
     14,   42.4264069,  0.200000003,  -42.4264069
     15,   44.9106445,  0.200000003,  -39.7873611
     16,   47.2310104,  0.200000003,  -37.0031319
     17,   49.3790321,  0.200000003,  -34.0838852
     18,   51.3468781,  0.200000003,  -31.0402679
     19,   53.1273613,  0.200000003,  -27.8833904
     20,   54.7139893,  0.200000003,  -24.6247692
** ... 500 like lines cut
*Element, type=S4R
 1,  1,  2, 29, 28
 2,  2,  3, 30, 29
 3,  3,  4, 31, 30
 4,  4,  5, 32, 31
 5,  5,  6, 33, 32
 6,  6,  7, 34, 33
 7,  7,  8, 35, 34
 8,  8,  9, 36, 35
 9,  9, 10, 37, 36
10, 10, 11, 38, 37
11, 11, 12, 39, 38
12, 12, 13, 40, 39
13, 13, 14, 41, 40
14, 14, 15, 42, 41
15, 15, 16, 43, 42
16, 16, 17, 44, 43
17, 17, 18, 45, 44
18, 18, 19, 46, 45
19, 19, 20, 47, 46
20, 20, 21, 48, 47
** ... 461 like lines cut
*Nset, nset=Straight, generate
   1,  520,    1
***********refine straight part of the tube**********************   
*Elset, elset=Straight, generate
   1,  481,    1
***********************************************
** Section: Tube_Shell
*Shell Section, elset=Straight, material=PLLA
2.0, 5
*Transverse Shear
25000., 25000., 0.
***********************************************
*End Part
**  
*Part, name=Rod
*Node
      1,           0.,    45.579277,         -20.
      2,          20.,    45.579277,           0.
      3,           0.,   44.2534943,  -19.8210278
      4,   19.8210278,   44.2534943,           0.
      5,           0.,   8.57852077,  -10.0104094
      6,   10.0104094,   8.57852077,           0.
      7,           0.,    4.9043045,  -5.18938351
      8,   5.18938351,    4.9043045,           0.
      9,           0.,    4.9043045,           0.
     10,   2.23928952,    45.579277,  -19.8742447
     11,   4.45041847,    45.579277,   -19.498558
     12,   6.60558128,    45.579277,  -18.8776665
     13,   8.67767525,    45.579277,  -18.0193768
     14,   10.6406412,    45.579277,  -16.9344845
     15,   12.4697962,    45.579277,  -15.6366301
     16,   14.1421356,    45.579277,  -14.1421356
     17,   15.6366301,    45.579277,  -12.4697962
     18,   16.9344845,    45.579277,  -10.6406412
     19,   18.0193768,    45.579277,  -8.67767525
     20,   18.8776665,    45.579277,  -6.60558128
** ... 338 like lines cut
*Element, type=S4R
 1,  1,  3, 23, 10
 2, 10, 23, 24, 11
 3, 11, 24, 25, 12
 4, 12, 25, 26, 13
 5, 13, 26, 27, 14
 6, 14, 27, 28, 15
 7, 15, 28, 29, 16
 8, 16, 29, 30, 17
 9, 17, 30, 31, 18
10, 18, 31, 32, 19
11, 19, 32, 33, 20
12, 20, 33, 34, 21
13, 21, 34, 35, 22
14, 22, 35,  4,  2
 15,   3,  36,  94,  23
 16,  36,  37,  95,  94
 17,  37,  38,  96,  95
 18,  38,  39,  97,  96
 19,  39,  40,  98,  97
 20,  40,  41,  99,  98
** ... 304 like lines cut
*Nset, nset=Set-6, generate
   1,  358,    1
*Elset, elset=Set-6, generate
   1,  324,    1
** Section: Rod
*Shell Section, elset=Set-6, material=PLLA
0.1, 5
*Transverse Shear
25000., 25000., 0. 
*End Part
**  
**
** ASSEMBLY
**
*Assembly, name=Assembly
**  
*Instance, name=Tube-1, part=Tube
*End Instance
**  
*Instance, name=Grip-1, part=Grip
          0.,          -2.,           0.
*End Instance
**  
*Instance, name=Rod-1, part=Rod
*End Instance
*********change the ref node height*****************
*Node
      1,           0.,          -60.,           0.
*Node
      2,           0.,          -10.,           0.
**node for rod
*Node
      3,           0.,           15.,           0.	  
********************************
**  
*Nset, nset=Xsym, instance=Tube-1
   1,    79,  80,  81,  82,  83,  84,  85,  86,  87,  88,  89,  90,  91,  92
  93,  94,  95,  96,  97,  98,  99, 100, 101
*Nset, nset=Zsym, instance=Tube-1
 27,  56, 57, 58, 59, 60, 61, 62, 63, 64, 65, 66, 67, 68, 69
 70, 71, 72, 73, 74, 75, 76, 77, 78
*********define the rigid point*****************    
*Nset, nset=topFix, instance=Tube-1, generate
  1,  54,   1
*Elset, elset=topFix, instance=Tube-1, generate
  1,  26,   1
*Elset, elset=moldFix, instance=Grip-1, generate
  1,  195,    1 
*Nset, nset=moldFix, instance=Grip-1, generate
  1,  223,    1  
*Elset, elset=rodFix, instance=Rod-1, generate
  1,  324,    1 
*Nset, nset=rodFix, instance=Rod-1, generate
  1,  358,    1  
*********define sets for temperature application**********************
*Elset, elset=tubeSurf, instance=Tube-1, generate
  1,  481,    1 
*Nset, nset=tubeSurf, instance=Tube-1, generate
  1,  520,    1  
*Elset, elset=tubeIn, instance=Tube-1, generate
  27,  481,    1   
*Nset, nset=tubeIn, instance=Tube-1, generate
  55,  520,    1  
*Nset, nset=wholeSurf
  moldFix,tubeSurf,rodFix 
*Nset, nset=rigidSurf
  moldFix,rodFix   
*Nset, nset=topRef
  2  
*Nset, nset=tip,instance=Tube-1
  55  
*Elset, elset=Record, instance=Tube-1
122, 
**Four nodes:349, 384, 302,210,

*Elset, elset=ZONE-1, instance=Tube-1
337,
*Elset, elset=ZONE-2, instance=Tube-1
387, 
*Elset, elset=ZONE-3, instance=Tube-1
368, 
*Elset, elset=ZONE-4, instance=Tube-1
307, 
*Elset, elset=ZONE-5, instance=Tube-1
255, 
*Elset, elset=ZONE-6, instance=Tube-1
201, 
************************
*Nset, nset=zone1,instance=Tube-1
  55,  56,  57,  58,  59,  98,  99, 100, 101, 386
 387, 388, 398, 399, 400, 411, 412
*Nset, nset=zone2,instance=Tube-1
  60,  61,  62,  63,  94,  95,  96,  97, 382, 383
 384, 385, 394, 395, 396, 397, 406, 407, 408, 409
 410, 418, 419, 420, 421, 422, 423, 424, 431, 432
 433, 434, 435, 436, 444, 445, 446, 447, 448, 457
 458, 459, 460
*Nset, nset=zone3,instance=Tube-1
  64,  65,  66,  67,  90,  91,  92,  93, 377, 378
 379, 380, 381, 389, 390, 391, 392, 393, 402, 403
 404, 405, 414, 415, 416, 417, 426, 427, 428, 429
 430, 438, 439, 440, 441, 442, 443, 451, 452, 453
 454, 455, 456, 464, 465, 466, 467, 468, 469, 470
 471, 472, 477, 478, 479, 480, 481, 482, 483, 484
 490, 491, 492, 493, 494, 495, 496, 503, 504, 505
 506, 507, 508, 519, 520
*Nset, nset=zone4,instance=Tube-1
  68,  69,  70,  71,  86,  87,  88,  89, 114, 115
 116, 117, 118, 119, 120, 121, 122, 123, 124, 125
 126, 127, 128, 129, 130, 131, 132, 133, 134, 135
 137, 138, 139, 147, 148, 149, 157, 158, 159, 167
 168, 177, 178, 187, 188, 197, 198, 207, 217, 350
 351, 352, 358, 359, 360, 361, 362, 363, 364, 367
 368, 369, 370, 371, 372, 373, 374, 375, 376, 401
 413, 425, 437, 449, 450, 461, 462, 463, 473, 474
 475, 476, 485, 486, 487, 488, 489, 497, 498, 499
 500, 501, 502, 509, 510, 511, 512, 513, 514, 515
 516, 517, 518
*Nset, nset=zone5,instance=Tube-1 
  72,  73,  74,  75,  82,  83,  84,  85, 102, 108
 109, 110, 111, 112, 113, 136, 140, 141, 142, 143
 150, 151, 152, 153, 160, 161, 162, 163, 169, 170
 171, 172, 173, 179, 180, 181, 182, 189, 190, 191
 192, 199, 200, 201, 202, 208, 209, 210, 211, 212
 218, 219, 220, 221, 222, 227, 228, 229, 230, 231
 232, 237, 238, 239, 240, 241, 247, 248, 249, 250
 251, 301, 302, 303, 304, 307, 308, 309, 310, 311
 312, 313, 314, 315, 316, 317, 318, 319, 320, 321
 322, 323, 324, 325, 326, 327, 328, 329, 330, 331
 332, 333, 334, 335, 336, 337, 338, 339, 340, 341
 342, 343, 344, 345, 346, 347, 348, 349, 353, 354
 355, 356, 357, 365, 366
*Nset, nset=zone6,instance=Tube-1 
   1,   2,   4,   5,   8,   9,  19,  20,  23,  24
  26,  27,  76,  77,  78,  79,  80,  81, 103, 104
 105, 106, 107, 144, 145, 146, 154, 155, 156, 164
 165, 166, 174, 175, 176, 183, 184, 185, 186, 193
 194, 195, 196, 203, 204, 205, 206, 213, 214, 215
 216, 223, 224, 225, 226, 233, 234, 235, 236, 242
 243, 244, 245, 246, 252, 253, 254, 255, 256, 257
 258, 259, 260, 261, 262, 263, 264, 265, 266, 267
 268, 269, 270, 271, 272, 273, 274, 275, 276, 277
 278, 279, 280, 281, 282, 283, 284, 285, 286, 287
 288, 289, 290, 291, 292, 293, 294, 295, 296, 297
 298, 299, 300, 305, 306
*Nset, nset=zone7,instance=Tube-1 
   3,   6,   7,  10,  11,  12,  13,  14,  15,  16
  17,  18,  21,  22,  25,  28,  29,  30,  31,  32
  33,  34,  35,  36,  37,  38,  39,  40,  41,  42
  43,  44,  45,  46,  47,  48,  49,  50,  51,  52
  53,  54
*********define the surface for pressure*****************  
*Surface, type=ELEMENT, name=Surf_pressure
tubeIn, SPOS
*Surface, type=ELEMENT, name=tubeOut
tubeIn, SNEG
*Surface, type=ELEMENT, name=moldSurf
moldFix, SPOS
*Surface, type=ELEMENT, name=rodSurf
rodFix, SPOS
***Surface, type=ELEMENT, name=rodSurf
**rodFix, SNEG
*********define the surface for rigid zone***************** 
** Constraint: Constraint-1
*Rigid Body, ref node=2, elset=topFix
** Constraint: Constraint-2
*Rigid Body, ref node=1, elset=moldFix
** Constraint: Constraint-3
*Rigid Body, ref node=3, elset=rodFix
*End Assembly
*Amplitude, name=Amp-1
             0.,              0.,             0.1,              0.,            0.2,              1.0,            0.3,              1.0
			 0.4,              1.5
*Amplitude, name=Amp-2
             0.,              0.,             0.1,            -64.0,           0.4,              -64.0
** 
** MATERIALS
** 
*Material, name=PLLA
*Density
 1.33e-06,
*Depvar
     30,
*User Material, constants=20
 9.1968e+05,      0.494,      919.6,    323.4037,    140.0956,     0.1600,     2.5931e+17,     37500.
  1.403e+10,     343.15,   0.043167,    13.9822,     348.15,     6627.5,    130.0766,    329.0035
     0.2031,     0.0593,     1.00,      0.495
** 
** INTERACTION PROPERTIES
** 
**Apply rough fiction ************************
*Surface Interaction, name=IntProp-1
*Friction,rough
**0.3,
*Surface Behavior, pressure-overclosure=HARD
**Apply rough fiction ************************
*Surface Interaction, name=IntProp-2
*Friction
0.3,
*Surface Behavior, pressure-overclosure=HARD
** 
** BOUNDARY CONDITIONS
** 
** Name: Bot Type: Displacement/Rotation
*Boundary
2, 1, 1
2, 2, 2
2, 3, 3
2, 4, 4
2, 5, 5
2, 6, 6
** Name: Top Type: Displacement/Rotation
*Boundary
1, 1, 1
1, 2, 2
1, 3, 3
1, 4, 4
1, 5, 5
1, 6, 6
** Name: Top Type: Displacement/Rotation
*Boundary
tip, 1, 1
tip, 3, 3
tip, 4, 4
tip, 5, 5
tip, 6, 6
** 
** Name: Top Type: Displacement/Rotation
*Boundary
3, 1, 1
3, 2, 2
3, 3, 3
3, 4, 4
3, 5, 5
3, 6, 6
** Name: X_Symm Type: Symmetry/Antisymmetry/Encastre
*Boundary
Xsym, XSYMM
** Name: Z_Symm Type: Symmetry/Antisymmetry/Encastre
*Boundary
Zsym, ZSYMM
** PREDEFINED FIELDS
** 
** Name: Predefined Field-1   Type: Temperature
*Initial Conditions, type=TEMPERATURE
rigidSurf, 350.15
zone1,0.00
zone2,0.00
zone3,0.00
zone4,0.00
zone5,0.00
zone6,0.00
zone7,350.15
** 
** 
** INTERACTIONS
** 
** Interaction: Int-2
*Contact, op=NEW
*Contact Inclusions
rodSurf , Surf_pressure
*Contact Property Assignment
 ,  , IntProp-1
** 
*Contact, op=NEW
*Contact Inclusions
moldSurf , tubeOut
*Contact Property Assignment
 ,  , IntProp-2 
** ----------------------------------------------------------------
** 
** STEP: Step-1
** 
*Step, name=Step-1, nlgeom=YES
*Dynamic, Explicit
, 0.25
*Bulk Viscosity
0.06, 1.2
** 
** BOUNDARY CONDITIONS
** 
** Name: Bot Type: Displacement/Rotation
*Boundary, op=NEW
2, 1, 1
2, 2, 2
2, 3, 3
2, 4, 4
2, 5, 5
2, 6, 6
** Name: Top Type: Displacement/Rotation
*Boundary, op=NEW
1, 1, 1
1, 2, 2
1, 3, 3
1, 4, 4
1, 5, 5
1, 6, 6
*Boundary, op=NEW
tip, 1, 1
tip, 3, 3
tip, 4, 4
tip, 5, 5
tip, 6, 6
** Name: Top Type: Displacement/Rotation
*Boundary, op=NEW, amplitude=Amp-2
3, 1, 1
3, 2, 2, 1
3, 3, 3
3, 4, 4
3, 5, 5
3, 6, 6
** Name: X_Symm Type: Symmetry/Antisymmetry/Encastre
*Boundary, op=NEW
Xsym, XSYMM
** Name: Z_Symm Type: Symmetry/Antisymmetry/Encastre
*Boundary, op=NEW
Zsym, ZSYMM
** 
** LOADS
** 
** Name: SupplyPressure   Type: Pressure
*Dsload, amplitude=Amp-1
Surf_pressure, P, 400.
** 
** OUTPUT REQUESTS
** 
*Restart, write, number interval=1, time marks=NO
** 
** FIELD OUTPUT: F-Output-1
** 
*Output, field, variable=ALL, number interval=50
** 
** HISTORY OUTPUT: H-Output-2
** 
*Output, history, time interval=0.01
*Element Output, elset=Record
LE11, LE22, STH, NE11, NE22, NE33, S11, S22, S33, SDV
*Node Output, nset=topRef
RF
*CONTACT OUTPUT,SURFACE=moldSurf
CAREA
** 
** HISTORY OUTPUT: H-Output-1
** 
*Output, history, variable=PRESELECT
*End Step
